*Heading
** Job name: Job-DCBAS4PEEKp1 Model name: Model-1
** Generated by: Abaqus/CAE 2020
*Preprint, echo=NO, model=NO, history=NO, contact=NO
**
** PARTS
**
*Part, name=AS4PEEK
*End Part
**  
**
** ASSEMBLY
**
*Assembly, name=Assembly
**  
*Instance, name=AS4PEEK-1, part=AS4PEEK
*Node
      1,         102.,   1.56500006
      2,         102.,   3.11999989
      3,          51.,   3.11999989
      4,           0.,   3.11999989
      5,   32.9000015,   1.56500006
      6,           0.,   1.56500006
      7,         102.,   1.55499995
      8,   32.9000015,   1.55499995
      9,           0.,   1.55499995
     10,           0.,           0.
     11,         102.,           0.
     12,         102.,   1.66218746
     13,         102.,   1.75937498
     14,         102.,    1.8565625
     15,         102.,   1.95375001
     16,         102.,   2.05093741
     17,         102.,   2.14812493
     18,         102.,   2.24531245
     19,         102.,   2.34249997
     20,         102.,   2.43968749
** ... 34694 like lines cut
***************************************************************
** Defining UEL(U1) - regular finite element
** Number of nodes: 4
** Properties: 	Thickness of plate 	( THICK )
**		Elastic modulus   	( Ex )
**		Elastic modulus   	( Ey )
**		   	( G )
**		Poisson ratio            ( NU )
** Coordinates: x, y
*User element, nodes=4, type=U1, properties=9, coordinates=2
1,2
***************************************************************
*Element, type=U1
    1,     1,    12,  4145,  1749
    2,    12,    13,  4146,  4145
    3,    13,    14,  4147,  4146
    4,    14,    15,  4148,  4147
    5,    15,    16,  4149,  4148
    6,    16,    17,  4150,  4149
    7,    17,    18,  4151,  4150
    8,    18,    19,  4152,  4151
    9,    19,    20,  4153,  4152
   10,    20,    21,  4154,  4153
   11,    21,    22,  4155,  4154
   12,    22,    23,  4156,  4155
   13,    23,    24,  4157,  4156
   14,    24,    25,  4158,  4157
   15,    25,    26,  4159,  4158
   16,    26,     2,    27,  4159
   17,  1749,  4145,  4160,  1748
   18,  4145,  4146,  4161,  4160
   19,  4146,  4147,  4162,  4161
   20,  4147,  4148,  4163,  4162
** ... 33311 like lines cut
*Element, type=CPE4
1000001,     1,    12,  4145,  1749
1000002,    12,    13,  4146,  4145
1000003,    13,    14,  4147,  4146
1000004,    14,    15,  4148,  4147
1000005,    15,    16,  4149,  4148
1000006,    16,    17,  4150,  4149
1000007,    17,    18,  4151,  4150
1000008,    18,    19,  4152,  4151
1000009,    19,    20,  4153,  4152
1000010,    20,    21,  4154,  4153
1000011,    21,    22,  4155,  4154
1000012,    22,    23,  4156,  4155
1000013,    23,    24,  4157,  4156
1000014,    24,    25,  4158,  4157
1000015,    25,    26,  4159,  4158
1000016,    26,     2,    27,  4159
1000017,  1749,  4145,  4160,  1748
1000018,  4145,  4146,  4161,  4160
1000019,  4146,  4147,  4162,  4161
1000020,  4147,  4148,  4163,  4162
** ... 33311 like lines cut
*Nset, nset=AS4, generate
     1,  34714,      1
*Elset, elset=U1, generate
     1,  32640,      1
*Nset, nset=PEEK
    1,    5,    7,    8, 1060, 1061, 1062, 1063, 1064, 1065, 1066, 1067, 1068, 1069, 1070, 1071
 1072, 1073, 1074, 1075, 1076, 1077, 1078, 1079, 1080, 1081, 1082, 1083, 1084, 1085, 1086, 1087
 1088, 1089, 1090, 1091, 1092, 1093, 1094, 1095, 1096, 1097, 1098, 1099, 1100, 1101, 1102, 1103
 1104, 1105, 1106, 1107, 1108, 1109, 1110, 1111, 1112, 1113, 1114, 1115, 1116, 1117, 1118, 1119
 1120, 1121, 1122, 1123, 1124, 1125, 1126, 1127, 1128, 1129, 1130, 1131, 1132, 1133, 1134, 1135
 1136, 1137, 1138, 1139, 1140, 1141, 1142, 1143, 1144, 1145, 1146, 1147, 1148, 1149, 1150, 1151
 1152, 1153, 1154, 1155, 1156, 1157, 1158, 1159, 1160, 1161, 1162, 1163, 1164, 1165, 1166, 1167
 1168, 1169, 1170, 1171, 1172, 1173, 1174, 1175, 1176, 1177, 1178, 1179, 1180, 1181, 1182, 1183
 1184, 1185, 1186, 1187, 1188, 1189, 1190, 1191, 1192, 1193, 1194, 1195, 1196, 1197, 1198, 1199
 1200, 1201, 1202, 1203, 1204, 1205, 1206, 1207, 1208, 1209, 1210, 1211, 1212, 1213, 1214, 1215
 1216, 1217, 1218, 1219, 1220, 1221, 1222, 1223, 1224, 1225, 1226, 1227, 1228, 1229, 1230, 1231
 1232, 1233, 1234, 1235, 1236, 1237, 1238, 1239, 1240, 1241, 1242, 1243, 1244, 1245, 1246, 1247
 1248, 1249, 1250, 1251, 1252, 1253, 1254, 1255, 1256, 1257, 1258, 1259, 1260, 1261, 1262, 1263
 1264, 1265, 1266, 1267, 1268, 1269, 1270, 1271, 1272, 1273, 1274, 1275, 1276, 1277, 1278, 1279
 1280, 1281, 1282, 1283, 1284, 1285, 1286, 1287, 1288, 1289, 1290, 1291, 1292, 1293, 1294, 1295
 1296, 1297, 1298, 1299, 1300, 1301, 1302, 1303, 1304, 1305, 1306, 1307, 1308, 1309, 1310, 1311
 1312, 1313, 1314, 1315, 1316, 1317, 1318, 1319, 1320, 1321, 1322, 1323, 1324, 1325, 1326, 1327
 1328, 1329, 1330, 1331, 1332, 1333, 1334, 1335, 1336, 1337, 1338, 1339, 1340, 1341, 1342, 1343
 1344, 1345, 1346, 1347, 1348, 1349, 1350, 1351, 1352, 1353, 1354, 1355, 1356, 1357, 1358, 1359
 1360, 1361, 1362, 1363, 1364, 1365, 1366, 1367, 1368, 1369, 1370, 1371, 1372, 1373, 1374, 1375
** ... 67 like lines cut
*Elset, elset=U2, generate
 32641,  33331,      1
 *Elset, elset=elDummy ,generate
1000001, 1033331, 1
 *Uel property, elset=U1
122700.,10100.,5500, 0.25,1,   1e-07, 33331, 4, 3
*Uel property, elset=U2
4100.,4100.,1511.8, 0.356,1,   1e-07, 33331, 4, 3
*Solid section, elset=elDummy, material=Dummy
*End Instance
**  
*Nset, nset=DOWN, instance=AS4PEEK-1
 10,
*Nset, nset=UP, instance=AS4PEEK-1
 4,
*End Assembly
*Material, name=Dummy
*Elastic
1.e-20
*User output variables
6
** ----------------------------------------------------------------
** 
** STEP: Step-1
** 
*Step, name=Step-1, nlgeom=NO
*Static
1., 1., 1e-05, 1.
** 
** BOUNDARY CONDITIONS
** 
** Name: BC-1 Type: /
*Boundary
UP, 1, 1
UP, 2, 2, 1.
** Name: BC-2 Type: /
*Boundary
DOWN, 1, 1
DOWN, 2, 2, -1.
** 
** OUTPUT REQUESTS
** 
*Restart, write, frequency=0
** 
** FIELD OUTPUT: F-Output-1
** 
*Output, field
*node output
U,RF
** 
** specify the user-defined output for the dummy element set
*element output, elset=AS4PEEK-1.elDummy

uvarm,E,S
** 
** HISTORY OUTPUT: H-Output-1
** 
*Output, history, variable=PRESELECT
*End Step
